* SPICE NETLIST
***************************************

.SUBCKT NC1 ng nds
.ENDS
***************************************
.SUBCKT NC2 ng nds
.ENDS
***************************************
.SUBCKT PC1 ng nds
.ENDS
***************************************
.SUBCKT PC2 ng nds
.ENDS
***************************************
.SUBCKT ICV_1
** N=1 EP=0 IP=0 FDC=0
.ENDS
***************************************
.SUBCKT ICV_2
** N=2 EP=0 IP=0 FDC=0
.ENDS
***************************************
.SUBCKT ICV_3
** N=10 EP=0 IP=0 FDC=0
.ENDS
***************************************
.SUBCKT ICV_4
** N=11 EP=0 IP=0 FDC=0
.ENDS
***************************************
.SUBCKT ICV_5
** N=12 EP=0 IP=0 FDC=0
.ENDS
***************************************
.SUBCKT ICV_6
** N=21 EP=0 IP=0 FDC=0
.ENDS
***************************************
.SUBCKT ICV_7
** N=19 EP=0 IP=0 FDC=0
.ENDS
***************************************
.SUBCKT ICV_8
** N=18 EP=0 IP=0 FDC=0
.ENDS
***************************************
.SUBCKT ICV_9
** N=17 EP=0 IP=0 FDC=0
.ENDS
***************************************
.SUBCKT ICV_10
** N=2 EP=0 IP=0 FDC=0
.ENDS
***************************************
.SUBCKT ICV_11
** N=1 EP=0 IP=0 FDC=0
.ENDS
***************************************
.SUBCKT ICV_12
** N=2 EP=0 IP=0 FDC=0
.ENDS
***************************************
.SUBCKT ICV_13
** N=3 EP=0 IP=0 FDC=0
.ENDS
***************************************
.SUBCKT PDIDGZ C PAD
** N=3 EP=2 IP=0 FDC=0
.ENDS
***************************************
.SUBCKT ICV_14 1 2 3 4 5 6 7 8 9 10 13
** N=13 EP=11 IP=15 FDC=0
X0 1 6 PDIDGZ $T=2600000 2155570 0 90 $X=2354000 $Y=2160848
X1 2 7 PDIDGZ $T=2600000 2195255 0 90 $X=2354000 $Y=2200533
X2 3 8 PDIDGZ $T=2600000 2234940 0 90 $X=2354000 $Y=2240218
X3 4 9 PDIDGZ $T=2600000 2274625 0 90 $X=2354000 $Y=2279903
X4 5 10 PDIDGZ $T=2600000 2314310 0 90 $X=2354000 $Y=2319588
.ENDS
***************************************
.SUBCKT ICV_15 1 2 3 4 5 6 7 8 9 10 15
** N=15 EP=11 IP=15 FDC=0
X0 1 6 PDIDGZ $T=2600000 1957145 0 90 $X=2354000 $Y=1962423
X1 2 7 PDIDGZ $T=2600000 1996830 0 90 $X=2354000 $Y=2002108
X2 3 8 PDIDGZ $T=2600000 2036515 0 90 $X=2354000 $Y=2041793
X3 4 9 PDIDGZ $T=2600000 2076200 0 90 $X=2354000 $Y=2081478
X4 5 10 PDIDGZ $T=2600000 2115885 0 90 $X=2354000 $Y=2121163
.ENDS
***************************************
.SUBCKT ICV_16 1 2 3 4 5 6 7 8 9 10 13
** N=13 EP=11 IP=15 FDC=0
X0 1 6 PDIDGZ $T=2600000 1758720 0 90 $X=2354000 $Y=1763998
X1 2 7 PDIDGZ $T=2600000 1798405 0 90 $X=2354000 $Y=1803683
X2 3 8 PDIDGZ $T=2600000 1838090 0 90 $X=2354000 $Y=1843368
X3 4 9 PDIDGZ $T=2600000 1877775 0 90 $X=2354000 $Y=1883053
X4 5 10 PDIDGZ $T=2600000 1917460 0 90 $X=2354000 $Y=1922738
.ENDS
***************************************
.SUBCKT PDO02CDG I PAD
** N=3 EP=2 IP=0 FDC=0
.ENDS
***************************************
.SUBCKT ICV_17 1 2 3 4 5 6 7 8 9 12 13 14 15 16 17 18 19 20 29
** N=30 EP=19 IP=27 FDC=0
X0 3 17 PDIDGZ $T=2600000 1599980 0 90 $X=2354000 $Y=1605258
X1 4 18 PDIDGZ $T=2600000 1639665 0 90 $X=2354000 $Y=1644943
X2 5 19 PDIDGZ $T=2600000 1679350 0 90 $X=2354000 $Y=1684628
X3 2 20 PDIDGZ $T=2600000 1719035 0 90 $X=2354000 $Y=1724313
X4 6 12 PDO02CDG $T=2600000 1401555 0 90 $X=2354000 $Y=1405243
X5 7 13 PDO02CDG $T=2600000 1441240 0 90 $X=2354000 $Y=1444928
X6 1 14 PDO02CDG $T=2600000 1480925 0 90 $X=2354000 $Y=1484613
X7 8 15 PDO02CDG $T=2600000 1520610 0 90 $X=2354000 $Y=1524298
X8 9 16 PDO02CDG $T=2600000 1560295 0 90 $X=2354000 $Y=1563983
.ENDS
***************************************
.SUBCKT ICV_18 1 2 3 4 5 6 7 8 9 10 11 12 13 14 15 16 24
** N=24 EP=17 IP=24 FDC=0
X0 1 9 PDO02CDG $T=2600000 1004705 0 90 $X=2354000 $Y=1008393
X1 2 10 PDO02CDG $T=2600000 1044390 0 90 $X=2354000 $Y=1048078
X2 3 11 PDO02CDG $T=2600000 1084075 0 90 $X=2354000 $Y=1087763
X3 4 12 PDO02CDG $T=2600000 1123760 0 90 $X=2354000 $Y=1127448
X4 5 13 PDO02CDG $T=2600000 1163445 0 90 $X=2354000 $Y=1167133
X5 6 14 PDO02CDG $T=2600000 1203130 0 90 $X=2354000 $Y=1206818
X6 7 15 PDO02CDG $T=2600000 1242815 0 90 $X=2354000 $Y=1246503
X7 8 16 PDO02CDG $T=2600000 1282500 0 90 $X=2354000 $Y=1286188
.ENDS
***************************************
.SUBCKT ICV_19 1 2 3 4 5 6 7 8 9 10 11 12 13 14 15 16 17 18 23
** N=23 EP=19 IP=27 FDC=0
X0 2 10 PDO02CDG $T=2600000 647540 0 90 $X=2354000 $Y=651228
X1 3 11 PDO02CDG $T=2600000 687225 0 90 $X=2354000 $Y=690913
X2 4 12 PDO02CDG $T=2600000 726910 0 90 $X=2354000 $Y=730598
X3 1 13 PDO02CDG $T=2600000 766595 0 90 $X=2354000 $Y=770283
X4 5 14 PDO02CDG $T=2600000 806280 0 90 $X=2354000 $Y=809968
X5 6 15 PDO02CDG $T=2600000 845965 0 90 $X=2354000 $Y=849653
X6 7 16 PDO02CDG $T=2600000 885650 0 90 $X=2354000 $Y=889338
X7 8 17 PDO02CDG $T=2600000 925335 0 90 $X=2354000 $Y=929023
X8 9 18 PDO02CDG $T=2600000 965020 0 90 $X=2354000 $Y=968708
.ENDS
***************************************
.SUBCKT ICV_20 1 2 3 4 5 6 7 8 9 10 11 12 13 14 15 16 17 18 19 20
+ 26
** N=26 EP=21 IP=30 FDC=0
X0 1 11 PDO02CDG $T=2600000 250690 0 90 $X=2354000 $Y=254378
X1 2 12 PDO02CDG $T=2600000 290375 0 90 $X=2354000 $Y=294063
X2 3 13 PDO02CDG $T=2600000 330060 0 90 $X=2354000 $Y=333748
X3 4 14 PDO02CDG $T=2600000 369745 0 90 $X=2354000 $Y=373433
X4 5 15 PDO02CDG $T=2600000 409430 0 90 $X=2354000 $Y=413118
X5 6 16 PDO02CDG $T=2600000 449115 0 90 $X=2354000 $Y=452803
X6 7 17 PDO02CDG $T=2600000 488800 0 90 $X=2354000 $Y=492488
X7 8 18 PDO02CDG $T=2600000 528485 0 90 $X=2354000 $Y=532173
X8 9 19 PDO02CDG $T=2600000 568170 0 90 $X=2354000 $Y=571858
X9 10 20 PDO02CDG $T=2600000 607855 0 90 $X=2354000 $Y=611543
.ENDS
***************************************
.SUBCKT ICV_21
** N=3 EP=0 IP=0 FDC=0
.ENDS
***************************************
.SUBCKT ICV_22
** N=3 EP=0 IP=0 FDC=0
.ENDS
***************************************
.SUBCKT ICV_23
** N=82 EP=0 IP=0 FDC=0
.ENDS
***************************************
.SUBCKT ICV_24 1 2 3 4 5 6 7 8 9 10 11 12 13 14 15 16 17 18 19 20
+ 21 22 23 24 25 26 27 28 29 30 31 32 33 34 35 36 37 38 39 40
+ 41 42 43 44 45 46 47 48 49 50 51 52 53 54 55 56 57 58 59 60
+ 61 62 63 64 65 66 67 68 69 70 71 72 73 74 75 76 81 82 83 84
+ 85 86 87 88 89 90 91 92 93 94 95 96 97 98 99 100 101 102 103 104
+ 105 106 135
** N=135 EP=103 IP=153 FDC=0
X0 1 52 PDIDGZ $T=285690 2600000 0 180 $X=255970 $Y=2354000
X1 2 53 PDIDGZ $T=325375 2600000 0 180 $X=295655 $Y=2354000
X2 3 54 PDIDGZ $T=365060 2600000 0 180 $X=335340 $Y=2354000
X3 4 55 PDIDGZ $T=404745 2600000 0 180 $X=375025 $Y=2354000
X4 5 56 PDIDGZ $T=444430 2600000 0 180 $X=414710 $Y=2354000
X5 6 57 PDIDGZ $T=484115 2600000 0 180 $X=454395 $Y=2354000
X6 7 58 PDIDGZ $T=523800 2600000 0 180 $X=494080 $Y=2354000
X7 8 59 PDIDGZ $T=563485 2600000 0 180 $X=533765 $Y=2354000
X8 9 60 PDIDGZ $T=603170 2600000 0 180 $X=573450 $Y=2354000
X9 10 61 PDIDGZ $T=642855 2600000 0 180 $X=613135 $Y=2354000
X10 11 62 PDIDGZ $T=682540 2600000 0 180 $X=652820 $Y=2354000
X11 12 63 PDIDGZ $T=722225 2600000 0 180 $X=692505 $Y=2354000
X12 13 64 PDIDGZ $T=761910 2600000 0 180 $X=732190 $Y=2354000
X13 14 65 PDIDGZ $T=801595 2600000 0 180 $X=771875 $Y=2354000
X14 15 66 PDIDGZ $T=841280 2600000 0 180 $X=811560 $Y=2354000
X15 16 67 PDIDGZ $T=880965 2600000 0 180 $X=851245 $Y=2354000
X16 17 68 PDIDGZ $T=920650 2600000 0 180 $X=890930 $Y=2354000
X17 18 69 PDIDGZ $T=960335 2600000 0 180 $X=930615 $Y=2354000
X18 19 70 PDIDGZ $T=1000020 2600000 0 180 $X=970300 $Y=2354000
X19 20 71 PDIDGZ $T=1039705 2600000 0 180 $X=1009985 $Y=2354000
X20 21 72 PDIDGZ $T=1079390 2600000 0 180 $X=1049670 $Y=2354000
X21 22 73 PDIDGZ $T=1119075 2600000 0 180 $X=1089355 $Y=2354000
X22 23 74 PDIDGZ $T=1158760 2600000 0 180 $X=1129040 $Y=2354000
X23 24 75 PDIDGZ $T=1198445 2600000 0 180 $X=1168725 $Y=2354000
X24 25 76 PDIDGZ $T=1238130 2600000 0 180 $X=1208410 $Y=2354000
X25 26 81 PDIDGZ $T=1357185 2600000 0 180 $X=1327465 $Y=2354000
X26 27 82 PDIDGZ $T=1396870 2600000 0 180 $X=1367150 $Y=2354000
X27 28 83 PDIDGZ $T=1436555 2600000 0 180 $X=1406835 $Y=2354000
X28 29 84 PDIDGZ $T=1476240 2600000 0 180 $X=1446520 $Y=2354000
X29 30 85 PDIDGZ $T=1515925 2600000 0 180 $X=1486205 $Y=2354000
X30 31 86 PDIDGZ $T=1555610 2600000 0 180 $X=1525890 $Y=2354000
X31 32 87 PDIDGZ $T=1595295 2600000 0 180 $X=1565575 $Y=2354000
X32 33 88 PDIDGZ $T=1634980 2600000 0 180 $X=1605260 $Y=2354000
X33 34 89 PDIDGZ $T=1674665 2600000 0 180 $X=1644945 $Y=2354000
X34 35 90 PDIDGZ $T=1714350 2600000 0 180 $X=1684630 $Y=2354000
X35 36 91 PDIDGZ $T=1754035 2600000 0 180 $X=1724315 $Y=2354000
X36 37 92 PDIDGZ $T=1793720 2600000 0 180 $X=1764000 $Y=2354000
X37 38 93 PDIDGZ $T=1833405 2600000 0 180 $X=1803685 $Y=2354000
X38 39 94 PDIDGZ $T=1873090 2600000 0 180 $X=1843370 $Y=2354000
X39 40 95 PDIDGZ $T=1912775 2600000 0 180 $X=1883055 $Y=2354000
X40 41 96 PDIDGZ $T=1952460 2600000 0 180 $X=1922740 $Y=2354000
X41 42 97 PDIDGZ $T=1992145 2600000 0 180 $X=1962425 $Y=2354000
X42 43 98 PDIDGZ $T=2031830 2600000 0 180 $X=2002110 $Y=2354000
X43 44 99 PDIDGZ $T=2071515 2600000 0 180 $X=2041795 $Y=2354000
X44 45 100 PDIDGZ $T=2111200 2600000 0 180 $X=2081480 $Y=2354000
X45 46 101 PDIDGZ $T=2150885 2600000 0 180 $X=2121165 $Y=2354000
X46 47 102 PDIDGZ $T=2190570 2600000 0 180 $X=2160850 $Y=2354000
X47 48 103 PDIDGZ $T=2230255 2600000 0 180 $X=2200535 $Y=2354000
X48 49 104 PDIDGZ $T=2269940 2600000 0 180 $X=2240220 $Y=2354000
X49 50 105 PDIDGZ $T=2309625 2600000 0 180 $X=2279905 $Y=2354000
X50 51 106 PDIDGZ $T=2349310 2600000 0 180 $X=2319590 $Y=2354000
.ENDS
***************************************
.SUBCKT ICV_25
** N=75902 EP=0 IP=0 FDC=0
.ENDS
***************************************
.SUBCKT ICV_26
** N=72534 EP=0 IP=0 FDC=0
.ENDS
***************************************
.SUBCKT OR2X1 A B VSS VDD Y
** N=6 EP=5 IP=0 FDC=0
.ENDS
***************************************
.SUBCKT TIELO VDD VSS Y
** N=4 EP=3 IP=0 FDC=0
.ENDS
***************************************
.SUBCKT CLKINVX20 A VSS Y VDD
** N=5 EP=4 IP=0 FDC=0
.ENDS
***************************************
.SUBCKT ICV_27 28 29 63 64 66 168 169 184 187 188 4159
** N=90492 EP=11 IP=23 FDC=0
X0 188 187 28 29 184 OR2X1 $T=1705220 1849510 0 180 $X=1703380 $Y=1845570
X1 29 28 63 TIELO $T=746120 1849510 0 0 $X=746118 $Y=1849258
X2 29 28 64 TIELO $T=747040 1849510 0 0 $X=747038 $Y=1849258
X3 29 28 66 TIELO $T=747960 1849510 0 0 $X=747958 $Y=1849258
X4 169 28 168 29 CLKINVX20 $T=1571820 1849510 0 0 $X=1571818 $Y=1849258
.ENDS
***************************************
.SUBCKT TIEHI VDD VSS Y
** N=4 EP=3 IP=0 FDC=0
.ENDS
***************************************
.SUBCKT BUFX12 A Y VSS VDD
** N=5 EP=4 IP=0 FDC=0
.ENDS
***************************************
.SUBCKT NOR2BX1 AN B VDD VSS Y
** N=6 EP=5 IP=0 FDC=0
.ENDS
***************************************
.SUBCKT CLKBUFX3 A VSS Y VDD
** N=5 EP=4 IP=0 FDC=0
.ENDS
***************************************
.SUBCKT OAI2BB2XL A0N A1N B1 VSS B0 VDD Y
** N=8 EP=7 IP=0 FDC=0
.ENDS
***************************************
.SUBCKT CLKBUFX4 A Y VSS VDD
** N=5 EP=4 IP=0 FDC=0
.ENDS
***************************************
.SUBCKT SDFFRXL SE D SI CK RN QN VDD VSS Q
** N=10 EP=9 IP=0 FDC=0
.ENDS
***************************************
.SUBCKT CLKBUFX2 A VSS Y VDD
** N=5 EP=4 IP=0 FDC=0
.ENDS
***************************************
.SUBCKT MX2XL S0 B A VSS VDD Y
** N=7 EP=6 IP=0 FDC=0
.ENDS
***************************************
.SUBCKT MXI2X1 B S0 Y A VSS VDD
** N=7 EP=6 IP=0 FDC=0
.ENDS
***************************************
.SUBCKT AND2X2 A VDD B VSS Y
** N=6 EP=5 IP=0 FDC=0
.ENDS
***************************************
.SUBCKT AND2XL A B VSS VDD Y
** N=6 EP=5 IP=0 FDC=0
.ENDS
***************************************
.SUBCKT NAND2X1 B VSS A Y VDD
** N=6 EP=5 IP=0 FDC=0
.ENDS
***************************************
.SUBCKT SDFFNSRXL SE SI D CKN RN SN QN VSS VDD Q
** N=11 EP=10 IP=0 FDC=0
.ENDS
***************************************
.SUBCKT NOR2X1 B VDD A Y VSS
** N=6 EP=5 IP=0 FDC=0
.ENDS
***************************************
.SUBCKT CLKINVX1 A VSS VDD Y
** N=5 EP=4 IP=0 FDC=0
.ENDS
***************************************
.SUBCKT INVXL A VDD VSS Y
** N=5 EP=4 IP=0 FDC=0
.ENDS
***************************************
.SUBCKT INVX1 A VSS VDD Y
** N=5 EP=4 IP=0 FDC=0
.ENDS
***************************************
.SUBCKT CLKINVX3 A VSS Y VDD
** N=5 EP=4 IP=0 FDC=0
.ENDS
***************************************
.SUBCKT ANTENNA VSS VDD A
** N=4 EP=3 IP=0 FDC=0
.ENDS
***************************************
.SUBCKT CLKBUFX20 A VSS Y VDD
** N=5 EP=4 IP=0 FDC=0
.ENDS
***************************************
.SUBCKT ICV_28 1 2 3 4 5 6 7 8 9 10 11 12 13 14 15
** N=15 EP=15 IP=18 FDC=0
X0 3 2 4 5 6 1 MXI2X1 $T=0 0 0 0 $X=-2 $Y=-252
X1 7 8 9 10 11 12 13 6 1 14 SDFFNSRXL $T=3220 0 0 0 $X=3218 $Y=-252
.ENDS
***************************************
.SUBCKT MXI4X1 A B S0 D C S1 VSS Y VDD
** N=10 EP=9 IP=0 FDC=0
.ENDS
***************************************
.SUBCKT CLKINVX12 A VSS Y VDD
** N=5 EP=4 IP=0 FDC=0
.ENDS
***************************************
.SUBCKT MXI4XL A B S0 D C S1 VSS Y VDD
** N=10 EP=9 IP=0 FDC=0
.ENDS
***************************************
.SUBCKT ICV_29 1 2 3 4 5 6 7 8 9 10 11 12 13 14 15
** N=15 EP=15 IP=18 FDC=0
X0 3 2 4 5 6 1 MXI2X1 $T=0 0 0 0 $X=-2 $Y=-252
X1 7 8 9 10 11 12 13 6 1 14 SDFFNSRXL $T=4140 0 0 0 $X=4138 $Y=-252
.ENDS
***************************************
.SUBCKT MX4X1 C D S0 B A S1 VDD VSS Y
** N=10 EP=9 IP=0 FDC=0
.ENDS
***************************************
.SUBCKT MXI2X2 S0 B Y A VSS VDD
** N=7 EP=6 IP=0 FDC=0
.ENDS
***************************************
.SUBCKT INVX12 A Y VDD VSS
** N=5 EP=4 IP=0 FDC=0
.ENDS
***************************************
.SUBCKT CLKMX2X2 S0 B A VDD VSS Y
** N=7 EP=6 IP=0 FDC=0
.ENDS
***************************************
.SUBCKT INVX2 A VSS VDD Y
** N=5 EP=4 IP=0 FDC=0
.ENDS
***************************************
.SUBCKT CLKINVX8 A VSS Y VDD
** N=5 EP=4 IP=0 FDC=0
.ENDS
***************************************
.SUBCKT MX4XL C D S0 B A S1 VDD VSS Y
** N=10 EP=9 IP=0 FDC=0
.ENDS
***************************************
.SUBCKT NOR2XL B VDD A Y VSS
** N=6 EP=5 IP=0 FDC=0
.ENDS
***************************************
.SUBCKT NOR2BXL AN B VDD VSS Y
** N=6 EP=5 IP=0 FDC=0
.ENDS
***************************************
.SUBCKT INVX3 A Y VSS VDD
** N=5 EP=4 IP=0 FDC=0
.ENDS
***************************************
.SUBCKT CLKBUFX16 A VSS Y VDD
** N=5 EP=4 IP=0 FDC=0
.ENDS
***************************************
.SUBCKT NAND2XL B VSS A Y VDD
** N=6 EP=5 IP=0 FDC=0
.ENDS
***************************************
.SUBCKT OAI221XL B1 B0 VSS A0 A1 VDD C0 Y
** N=9 EP=8 IP=0 FDC=0
.ENDS
***************************************
.SUBCKT OA22X1 A1 A0 B0 B1 VSS VDD Y
** N=8 EP=7 IP=0 FDC=0
.ENDS
***************************************
.SUBCKT AO22X1 B1 B0 A0 VSS A1 VDD Y
** N=8 EP=7 IP=0 FDC=0
.ENDS
***************************************
.SUBCKT NOR4X1 D VDD C B A VSS Y
** N=8 EP=7 IP=0 FDC=0
.ENDS
***************************************
.SUBCKT NAND3BX1 AN VDD VSS C B Y
** N=7 EP=6 IP=0 FDC=0
.ENDS
***************************************
.SUBCKT XOR2X1 A B Y VSS VDD
** N=6 EP=5 IP=0 FDC=0
.ENDS
***************************************
.SUBCKT OAI21XL A1 A0 VSS B0 VDD Y
** N=7 EP=6 IP=0 FDC=0
.ENDS
***************************************
.SUBCKT MX2X1 S0 B A VSS VDD Y
** N=7 EP=6 IP=0 FDC=0
.ENDS
***************************************
.SUBCKT XOR2XL A B Y VSS VDD
** N=6 EP=5 IP=0 FDC=0
.ENDS
***************************************
.SUBCKT AOI222XL C0 C1 VDD B1 B0 A0 A1 Y VSS
** N=10 EP=9 IP=0 FDC=0
.ENDS
***************************************
.SUBCKT AO21X1 A1 A0 B0 VSS VDD Y
** N=7 EP=6 IP=0 FDC=0
.ENDS
***************************************
.SUBCKT AOI22XL B1 B0 VDD A0 A1 VSS Y
** N=8 EP=7 IP=0 FDC=0
.ENDS
***************************************
.SUBCKT XOR3X1 A B C VDD Y VSS
** N=7 EP=6 IP=0 FDC=0
.ENDS
***************************************
.SUBCKT NAND2BXL AN B VSS VDD Y
** N=6 EP=5 IP=0 FDC=0
.ENDS
***************************************
.SUBCKT ADDFXL B A CI CO VDD VSS S
** N=8 EP=7 IP=0 FDC=0
.ENDS
***************************************
.SUBCKT SDFFRX2 D SE SI CK RN QN Q VDD VSS
** N=10 EP=9 IP=0 FDC=0
.ENDS
***************************************
.SUBCKT OAI211X1 A1 A0 VSS C0 VDD B0 Y
** N=8 EP=7 IP=0 FDC=0
.ENDS
***************************************
.SUBCKT AOI2BB2X1 A1N A0N B1 VDD B0 Y VSS
** N=8 EP=7 IP=0 FDC=0
.ENDS
***************************************
.SUBCKT XNOR2X1 A B Y VDD VSS
** N=6 EP=5 IP=0 FDC=0
.ENDS
***************************************
.SUBCKT NOR3X1 C VDD B VSS A Y
** N=7 EP=6 IP=0 FDC=0
.ENDS
***************************************
.SUBCKT AND4X1 A B C VSS D VDD Y
** N=8 EP=7 IP=0 FDC=0
.ENDS
***************************************
.SUBCKT AO21XL A1 A0 B0 VSS VDD Y
** N=7 EP=6 IP=0 FDC=0
.ENDS
***************************************
.SUBCKT AOI21X1 A1 A0 VDD B0 VSS Y
** N=7 EP=6 IP=0 FDC=0
.ENDS
***************************************
.SUBCKT AOI22X1 B1 B0 VDD A0 A1 VSS Y
** N=8 EP=7 IP=0 FDC=0
.ENDS
***************************************
.SUBCKT NAND2BX1 AN B VSS Y VDD
** N=6 EP=5 IP=0 FDC=0
.ENDS
***************************************
.SUBCKT OA21XL A1 A0 B0 VSS VDD Y
** N=7 EP=6 IP=0 FDC=0
.ENDS
***************************************
.SUBCKT XNOR2XL A B Y VSS VDD
** N=6 EP=5 IP=0 FDC=0
.ENDS
***************************************
.SUBCKT OAI31XL VSS A2 A1 A0 B0 Y VDD
** N=8 EP=7 IP=0 FDC=0
.ENDS
***************************************
.SUBCKT CMPR32X2 B A C CO VSS VDD S
** N=8 EP=7 IP=0 FDC=0
.ENDS
***************************************
.SUBCKT NAND3BXL AN C VSS B VDD Y
** N=7 EP=6 IP=0 FDC=0
.ENDS
***************************************
.SUBCKT AOI2BB1X1 A0N A1N B0 VDD VSS Y
** N=7 EP=6 IP=0 FDC=0
.ENDS
***************************************
.SUBCKT SDFFRHQX8 CK SE D SI RN Q VSS VDD
** N=9 EP=8 IP=0 FDC=0
.ENDS
***************************************
.SUBCKT NAND4BBXL BN D C Y VDD AN VSS
** N=8 EP=7 IP=0 FDC=0
.ENDS
***************************************
.SUBCKT BUFX2 A Y VSS VDD
** N=5 EP=4 IP=0 FDC=0
.ENDS
***************************************
.SUBCKT NAND4XL D VSS C B A Y VDD
** N=8 EP=7 IP=0 FDC=0
.ENDS
***************************************
.SUBCKT SDFFSXL SE SI D CK SN QN VSS VDD Q
** N=10 EP=9 IP=0 FDC=0
.ENDS
***************************************
.SUBCKT TLATX1 G D Q VDD VSS QN
** N=7 EP=6 IP=0 FDC=0
.ENDS
***************************************
.SUBCKT SDFFRX4 D SE SI CK RN QN Q VDD VSS
** N=10 EP=9 IP=0 FDC=0
.ENDS
***************************************
.SUBCKT OAI22XL B1 VSS B0 A0 A1 Y VDD
** N=8 EP=7 IP=0 FDC=0
.ENDS
***************************************
.SUBCKT AND3XL A B VSS C VDD Y
** N=7 EP=6 IP=0 FDC=0
.ENDS
***************************************
.SUBCKT NAND3XL C VSS B VDD A Y
** N=7 EP=6 IP=0 FDC=0
.ENDS
***************************************
.SUBCKT OAI32X1 A2 A1 VSS A0 B0 Y VDD B1
** N=9 EP=8 IP=0 FDC=0
.ENDS
***************************************
.SUBCKT OAI2BB1X1 A1N A0N B0 VSS Y VDD
** N=7 EP=6 IP=0 FDC=0
.ENDS
***************************************
.SUBCKT NOR3XL C VDD B VSS A Y
** N=7 EP=6 IP=0 FDC=0
.ENDS
***************************************
.SUBCKT AO22XL B1 B0 A0 A1 VSS VDD Y
** N=8 EP=7 IP=0 FDC=0
.ENDS
***************************************
.SUBCKT NAND3X1 C VSS B VDD A Y
** N=7 EP=6 IP=0 FDC=0
.ENDS
***************************************
.SUBCKT NOR4XL D VDD C B Y VSS A
** N=8 EP=7 IP=0 FDC=0
.ENDS
***************************************
.SUBCKT NAND4X1 D VSS C B A Y VDD
** N=8 EP=7 IP=0 FDC=0
.ENDS
***************************************
.SUBCKT AOI2BB2XL A1N A0N VDD B1 B0 VSS Y
** N=8 EP=7 IP=0 FDC=0
.ENDS
***************************************
.SUBCKT NOR4BX1 AN D VDD C B Y VSS
** N=8 EP=7 IP=0 FDC=0
.ENDS
***************************************
.SUBCKT AND3X2 A B C VSS VDD Y
** N=7 EP=6 IP=0 FDC=0
.ENDS
***************************************
.SUBCKT AOI211X1 A1 VDD A0 C0 VSS B0 Y
** N=8 EP=7 IP=0 FDC=0
.ENDS
***************************************
.SUBCKT NAND4BX1 AN D VSS C B Y VDD
** N=8 EP=7 IP=0 FDC=0
.ENDS
***************************************
.SUBCKT OR3XL A B C VDD VSS Y
** N=7 EP=6 IP=0 FDC=0
.ENDS
***************************************
.SUBCKT OR4X1 A B C D VDD VSS Y
** N=8 EP=7 IP=0 FDC=0
.ENDS
***************************************
.SUBCKT OR3X2 A B C VDD VSS Y
** N=7 EP=6 IP=0 FDC=0
.ENDS
***************************************
.SUBCKT AOI211XL A1 VDD A0 C0 VSS B0 Y
** N=8 EP=7 IP=0 FDC=0
.ENDS
***************************************
.SUBCKT AOI221XL B1 B0 VDD A0 A1 VSS C0 Y
** N=9 EP=8 IP=0 FDC=0
.ENDS
***************************************
.SUBCKT BUFX4 A VSS VDD Y
** N=5 EP=4 IP=0 FDC=0
.ENDS
***************************************
.SUBCKT OAI33X1 B2 B1 B0 VSS A0 A1 A2 VDD Y
** N=10 EP=9 IP=0 FDC=0
.ENDS
***************************************
.SUBCKT OAI2BB1XL A1N A0N B0 VSS VDD Y
** N=7 EP=6 IP=0 FDC=0
.ENDS
***************************************
.SUBCKT CLKBUFX8 A VSS Y VDD
** N=5 EP=4 IP=0 FDC=0
.ENDS
***************************************
.SUBCKT ICV_30 2 24 25 26 27 28 29 30 31 32 33 34 35 36 37 38 39 40 41 42
+ 43 44 45 46 47 48 49 50 51 52 53 54 55 56 57 58 59 60 61 62
+ 63 64 65 66 67 68 69 70 71 72 73 74 75 76 77 78 79 80 81 82
+ 83 84 85 86 87 88 89 90 91 92 93 94 95 96 97 98 99 100 101 102
+ 103 104 105 106 107 108 109 110 111 112 113 114 115 116 117 118 119 120 121 122
+ 123 124 125 126 127 128 129 130 131 132 133 134 135 136 137 138 139 140 141 142
+ 143 144 145 146 147 148 149 150 151 152 153 154 155 156 157 158 159 160 161 162
+ 163 164 165 166 167 168 169 170 171 172 173 174 175 176 177 178 179 180 181 182
+ 183 184 185 186 187 188 189 190 191 192 193 194 195 196 197 198 199 200 201 202
+ 203 204 205 206 207 208 209 210 211 212 213 214 215 216 217 218 219 220 221 222
+ 223 224 225 226 227 228 229 230 231 232 233 234 235 236 237 238 239 240 241 242
+ 243 244 245 246 247 248 249 250 251 252 253 254 255 256 257 258 259 260 261 262
+ 263 264 265 266 267 268 269 270 271 272 273 274 275 276 277 278 279 280 281 282
+ 283 284 285 286 287 288 289 290 291 292 293 294 295 296 297 298 299 300 301 302
+ 303 304 305 306 307 308 309 310 311 312 313 314 315 316 317 318 319 320 321 322
+ 323 324 325 326 327 328 329 330 331 332 333 334 335 336 337 338 339 340 341 342
+ 343 344 345 346 347 348 349 350 351 352 353 354 355 356 357 358 359 360 361 362
+ 363 364 365 366 367 368 369 370 371 372 373 374 375 376 377 378 379 380 381 382
+ 383 384 385 386 387 388 389 390 391 392 393 394 395 396 397 398 399 400 401 402
+ 403 404 405 406 407 408 409 410 411 412 413 414 415 416 417 418 419 420 421 422
+ 423 424 425 426 427 428 429 430 431 432 433 434 435 436 437 438 439 440 441 442
+ 443 444 445 446 447 448 449 450 451 452 453 454 455 456 457 458 459 460 461 462
+ 463 464 465 466 467 468 469 470 471 472 473 474 475 476 477 478 479 480 481 482
+ 483 484 485 486 487 488 489 490 491 492 493 494 495 496 497 498 499 500 501 502
+ 503 504 505 506 507 508 509 510 511 512 513 514 515 516 517 518 519 520 521 522
+ 523 524 525 526 527 528 529 530 531 532 533 534 535 536 537 538 539 540 541 542
+ 543 544 545 546 547 548 549 550 551 552 553 554 555 556 557 558 559 560 561 562
+ 563 564 565 566 567 568 569 570 571 572 573 574 575 576 577 578 579 580 581 582
+ 583 584 585 586 587 588 589 590 591 592 593 594 595 596 597 598 599 600 601 602
+ 603 604 605 606 607 608 609 610 611 612 613 614 615 616 617 618 619 620 621 622
+ 623 624 625 626 627 628 629 630 631 3961
** N=193159 EP=610 IP=22561 FDC=0
X0 10280 10169 24 25 10275 OR2X1 $T=1139880 1495270 0 180 $X=1138040 $Y=1491330
X1 10387 10599 24 25 10594 OR2X1 $T=1165180 1510030 0 180 $X=1163340 $Y=1506090
X2 10817 11179 24 25 11184 OR2X1 $T=1201980 1465750 0 0 $X=1201978 $Y=1465498
X3 11312 193 24 25 11374 OR2X1 $T=1213480 1355050 1 0 $X=1213478 $Y=1351110
X4 11526 11475 24 25 11232 OR2X1 $T=1227280 1391950 0 180 $X=1225440 $Y=1388010
X5 11455 11387 24 25 11501 OR2X1 $T=1225900 1399330 0 0 $X=1225898 $Y=1399078
X6 10644 11498 24 25 11508 OR2X1 $T=1226360 1369810 1 0 $X=1226358 $Y=1365870
X7 11581 11588 24 25 11651 OR2X1 $T=1231880 1362430 1 0 $X=1231878 $Y=1358490
X8 11018 92 24 25 11617 OR2X1 $T=1232800 1458370 0 0 $X=1232798 $Y=1458118
X9 219 220 24 25 11754 OR2X1 $T=1243840 1355050 1 0 $X=1243838 $Y=1351110
X10 11872 11812 24 25 11756 OR2X1 $T=1249820 1473130 1 180 $X=1247980 $Y=1472878
X11 15168 15158 24 25 15152 OR2X1 $T=1556640 1450990 1 180 $X=1554800 $Y=1450738
X12 25 24 2 TIELO $T=746120 1731430 1 0 $X=746118 $Y=1727490
X13 25 24 630 TIELO $T=1852880 1524790 0 0 $X=1852878 $Y=1524538
X14 25 24 12615 TIEHI $T=1343660 1473130 0 0 $X=1343658 $Y=1472878
X15 25 24 12342 TIEHI $T=1376780 1532170 1 0 $X=1376778 $Y=1528230
X16 25 24 12507 TIEHI $T=1380000 1384570 0 0 $X=1379998 $Y=1384318
X17 25 24 13267 TIEHI $T=1380460 1569070 1 0 $X=1380458 $Y=1565130
X18 25 24 12399 TIEHI $T=1381840 1473130 1 0 $X=1381838 $Y=1469190
X19 25 24 12721 TIEHI $T=1381840 1517410 1 0 $X=1381838 $Y=1513470
X20 25 24 12506 TIEHI $T=1384600 1369810 0 0 $X=1384598 $Y=1369558
X21 25 24 12462 TIEHI $T=1385060 1406710 0 0 $X=1385058 $Y=1406458
X22 25 24 12497 TIEHI $T=1385060 1539550 1 0 $X=1385058 $Y=1535610
X23 25 24 12398 TIEHI $T=1386900 1428850 1 0 $X=1386898 $Y=1424910
X24 25 24 12508 TIEHI $T=1389660 1450990 1 0 $X=1389658 $Y=1447050
X25 25 24 12560 TIEHI $T=1391960 1458370 0 0 $X=1391958 $Y=1458118
X26 25 24 12688 TIEHI $T=1395640 1436230 0 0 $X=1395638 $Y=1435978
X27 25 24 12805 TIEHI $T=1396560 1554310 0 0 $X=1396558 $Y=1554058
X28 25 24 12684 TIEHI $T=1403000 1502650 0 0 $X=1402998 $Y=1502398
X29 25 24 12683 TIEHI $T=1405760 1377190 0 0 $X=1405758 $Y=1376938
X30 25 24 12687 TIEHI $T=1405760 1414090 0 0 $X=1405758 $Y=1413838
X31 25 24 12692 TIEHI $T=1409440 1546930 0 0 $X=1409438 $Y=1546678
X32 25 24 12818 TIEHI $T=1413580 1362430 1 0 $X=1413578 $Y=1358490
X33 25 24 12678 TIEHI $T=1414960 1487890 0 0 $X=1414958 $Y=1487638
X34 25 24 12679 TIEHI $T=1418640 1495270 0 0 $X=1418638 $Y=1495018
X35 25 24 12787 TIEHI $T=1420020 1443610 0 0 $X=1420018 $Y=1443358
X36 25 24 12926 TIEHI $T=1425540 1399330 1 0 $X=1425538 $Y=1395390
X37 25 24 12974 TIEHI $T=1430600 1546930 0 0 $X=1430598 $Y=1546678
X38 25 24 12925 TIEHI $T=1431060 1465750 0 0 $X=1431058 $Y=1465498
X39 25 24 13025 TIEHI $T=1436580 1510030 1 0 $X=1436578 $Y=1506090
X40 25 24 13042 TIEHI $T=1437040 1524790 0 0 $X=1437038 $Y=1524538
X41 25 24 13062 TIEHI $T=1437500 1532170 0 0 $X=1437498 $Y=1531918
X42 25 24 13096 TIEHI $T=1443480 1517410 1 0 $X=1443478 $Y=1513470
X43 25 24 13152 TIEHI $T=1450380 1436230 0 0 $X=1450378 $Y=1435978
X44 25 24 13391 TIEHI $T=1464180 1406710 1 0 $X=1464178 $Y=1402770
X45 25 24 13383 TIEHI $T=1465100 1428850 1 0 $X=1465098 $Y=1424910
X46 25 24 13397 TIEHI $T=1465100 1495270 1 0 $X=1465098 $Y=1491330
X47 25 24 13413 TIEHI $T=1465560 1495270 0 0 $X=1465558 $Y=1495018
X48 25 24 13425 TIEHI $T=1475220 1473130 0 0 $X=1475218 $Y=1472878
X49 25 24 441 TIEHI $T=1477520 1355050 1 0 $X=1477518 $Y=1351110
X50 25 24 13475 TIEHI $T=1478440 1362430 1 0 $X=1478438 $Y=1358490
X51 25 24 13530 TIEHI $T=1478440 1414090 1 0 $X=1478438 $Y=1410150
X52 25 24 13476 TIEHI $T=1478900 1384570 1 0 $X=1478898 $Y=1380630
X53 25 24 13485 TIEHI $T=1479360 1391950 1 0 $X=1479358 $Y=1388010
X54 25 24 13576 TIEHI $T=1481660 1458370 1 0 $X=1481658 $Y=1454430
X55 25 24 13503 TIEHI $T=1486720 1421470 1 0 $X=1486718 $Y=1417530
X56 25 24 13655 TIEHI $T=1487180 1377190 1 0 $X=1487178 $Y=1373250
X57 25 24 13651 TIEHI $T=1488560 1480510 0 0 $X=1488558 $Y=1480258
X58 25 24 13668 TIEHI $T=1489480 1450990 1 0 $X=1489478 $Y=1447050
X59 25 24 631 TIEHI $T=1852880 1561690 0 0 $X=1852878 $Y=1561438
X60 16194 628 24 25 BUFX12 $T=1840000 1443610 1 0 $X=1839998 $Y=1439670
X61 16091 629 24 25 BUFX12 $T=1841840 1458370 1 0 $X=1841838 $Y=1454430
X62 35 9745 25 24 9739 NOR2BX1 $T=1106760 1391950 0 180 $X=1104920 $Y=1388010
X63 10490 10460 25 24 10274 NOR2BX1 $T=1152300 1495270 0 180 $X=1150460 $Y=1491330
X64 10455 10389 25 24 119 NOR2BX1 $T=1153680 1473130 1 0 $X=1153678 $Y=1469190
X65 11541 92 25 24 11626 NOR2BX1 $T=1233720 1458370 1 0 $X=1233718 $Y=1454430
X66 11313 11469 25 24 11660 NOR2BX1 $T=1234180 1414090 1 0 $X=1234178 $Y=1410150
X67 11692 12206 25 24 12179 NOR2BX1 $T=1275120 1487890 0 180 $X=1273280 $Y=1483950
X68 76 10937 25 24 12670 NOR2BX1 $T=1302720 1362430 0 0 $X=1302718 $Y=1362178
X69 10033 10137 25 24 12693 NOR2BX1 $T=1311460 1355050 0 0 $X=1311458 $Y=1354798
X70 10137 10033 25 24 12778 NOR2BX1 $T=1318820 1362430 1 0 $X=1318818 $Y=1358490
X71 386 14915 25 24 14854 NOR2BX1 $T=1530880 1443610 0 180 $X=1529040 $Y=1439670
X72 537 550 25 24 14937 NOR2BX1 $T=1537780 1355050 0 180 $X=1535940 $Y=1351110
X73 537 14915 25 24 14882 NOR2BX1 $T=1538700 1443610 1 180 $X=1536860 $Y=1443358
X74 391 14969 25 24 14957 NOR2BX1 $T=1538700 1458370 1 180 $X=1536860 $Y=1458118
X75 360 14981 25 24 14941 NOR2BX1 $T=1540080 1450990 1 180 $X=1538240 $Y=1450738
X76 339 15066 25 24 14960 NOR2BX1 $T=1544220 1377190 1 180 $X=1542380 $Y=1376938
X77 382 15066 25 24 15067 NOR2BX1 $T=1548820 1377190 1 180 $X=1546980 $Y=1376938
X78 537 14981 25 24 15091 NOR2BX1 $T=1551120 1458370 0 180 $X=1549280 $Y=1454430
X79 339 14989 25 24 15061 NOR2BX1 $T=1551580 1414090 0 180 $X=1549740 $Y=1410150
X80 374 14989 25 24 15062 NOR2BX1 $T=1551580 1414090 1 180 $X=1549740 $Y=1413838
X81 339 14969 25 24 15129 NOR2BX1 $T=1552960 1465750 0 180 $X=1551120 $Y=1461810
X82 357 15185 25 24 15175 NOR2BX1 $T=1559400 1406710 1 0 $X=1559398 $Y=1402770
X83 15243 386 25 24 15159 NOR2BX1 $T=1561240 1377190 0 180 $X=1559400 $Y=1373250
X84 401 15280 25 24 15236 NOR2BX1 $T=1564000 1458370 0 180 $X=1562160 $Y=1454430
X85 537 15185 25 24 15238 NOR2BX1 $T=1565840 1406710 1 180 $X=1564000 $Y=1406458
X86 401 15266 25 24 15263 NOR2BX1 $T=1567220 1465750 0 0 $X=1567218 $Y=1465498
X87 339 15284 25 24 15260 NOR2BX1 $T=1569980 1421470 1 180 $X=1568140 $Y=1421218
X88 537 15280 25 24 15245 NOR2BX1 $T=1572740 1458370 0 180 $X=1570900 $Y=1454430
X89 383 15284 25 24 15332 NOR2BX1 $T=1571360 1421470 1 0 $X=1571358 $Y=1417530