$ Spice netlist generated by v2lvs
$ v2012.2_26.20    Thu Jun 14 12:01:04 PDT 2012
.INCLUDE "RF2SH64x16.spi" 
.INCLUDE "tpz013g3_lvs.spi" 
.INCLUDE "tsmc13gfsg_fram_lvs.spi" 

.SUBCKT DataMemory_test_1 clk rst stall EX_WB[1] EX_WB[0] EX_MEM[2] EX_MEM[1] 
+ EX_MEM[0] EX_ALUresult[31] EX_ALUresult[30] EX_ALUresult[29] EX_ALUresult[28] 
+ EX_ALUresult[27] EX_ALUresult[26] EX_ALUresult[25] EX_ALUresult[24] 
+ EX_ALUresult[23] EX_ALUresult[22] EX_ALUresult[21] EX_ALUresult[20] 
+ EX_ALUresult[19] EX_ALUresult[18] EX_ALUresult[17] EX_ALUresult[16] 
+ EX_ALUresult[15] EX_ALUresult[14] EX_ALUresult[13] EX_ALUresult[12] 
+ EX_ALUresult[11] EX_ALUresult[10] EX_ALUresult[9] EX_ALUresult[8] 
+ EX_ALUresult[7] EX_ALUresult[6] EX_ALUresult[5] EX_ALUresult[4] 
+ EX_ALUresult[3] EX_ALUresult[2] EX_ALUresult[1] EX_ALUresult[0] 
+ EX_RegisterRd[4] EX_RegisterRd[3] EX_RegisterRd[2] EX_RegisterRd[1] 
+ EX_RegisterRd[0] MEMWriteData[31] MEMWriteData[30] MEMWriteData[29] 
+ MEMWriteData[28] MEMWriteData[27] MEMWriteData[26] MEMWriteData[25] 
+ MEMWriteData[24] MEMWriteData[23] MEMWriteData[22] MEMWriteData[21] 
+ MEMWriteData[20] MEMWriteData[19] MEMWriteData[18] MEMWriteData[17] 
+ MEMWriteData[16] MEMWriteData[15] MEMWriteData[14] MEMWriteData[13] 
+ MEMWriteData[12] MEMWriteData[11] MEMWriteData[10] MEMWriteData[9] 
+ MEMWriteData[8] MEMWriteData[7] MEMWriteData[6] MEMWriteData[5] 
+ MEMWriteData[4] MEMWriteData[3] MEMWriteData[2] MEMWriteData[1] 
+ MEMWriteData[0] WB[1] WB[0] MemoryData[31] MemoryData[30] MemoryData[29] 
+ MemoryData[28] MemoryData[27] MemoryData[26] MemoryData[25] MemoryData[24] 
+ MemoryData[23] MemoryData[22] MemoryData[21] MemoryData[20] MemoryData[19] 
+ MemoryData[18] MemoryData[17] MemoryData[16] MemoryData[15] MemoryData[14] 
+ MemoryData[13] MemoryData[12] MemoryData[11] MemoryData[10] MemoryData[9] 
+ MemoryData[8] MemoryData[7] MemoryData[6] MemoryData[5] MemoryData[4] 
+ MemoryData[3] MemoryData[2] MemoryData[1] MemoryData[0] ALUresult[31] 
+ ALUresult[30] ALUresult[29] ALUresult[28] ALUresult[27] ALUresult[26] 
+ ALUresult[25] ALUresult[24] ALUresult[23] ALUresult[22] ALUresult[21] 
+ ALUresult[20] ALUresult[19] ALUresult[18] ALUresult[17] ALUresult[16] 
+ ALUresult[15] ALUresult[14] ALUresult[13] ALUresult[12] ALUresult[11] 
+ ALUresult[10] ALUresult[9] ALUresult[8] ALUresult[7] ALUresult[6] 
+ ALUresult[5] ALUresult[4] ALUresult[3] ALUresult[2] ALUresult[1] ALUresult[0] 
+ RegisterRd[4] RegisterRd[3] RegisterRd[2] RegisterRd[1] RegisterRd[0] 
+ read_MemoryData[31] read_MemoryData[30] read_MemoryData[29] 
+ read_MemoryData[28] read_MemoryData[27] read_MemoryData[26] 
+ read_MemoryData[25] read_MemoryData[24] read_MemoryData[23] 
+ read_MemoryData[22] read_MemoryData[21] read_MemoryData[20] 
+ read_MemoryData[19] read_MemoryData[18] read_MemoryData[17] 
+ read_MemoryData[16] read_MemoryData[15] read_MemoryData[14] 
+ read_MemoryData[13] read_MemoryData[12] read_MemoryData[11] 
+ read_MemoryData[10] read_MemoryData[9] read_MemoryData[8] read_MemoryData[7] 
+ read_MemoryData[6] read_MemoryData[5] read_MemoryData[4] read_MemoryData[3] 
+ read_MemoryData[2] read_MemoryData[1] read_MemoryData[0] test_si test_so 
+ test_se SPCASCAN_N6 FE_PT1_ICACHE_addr_i_25_ SPCASCAN_N10 
+ FE_PT1_ICACHE_addr_i_23_ SPCASCAN_N30 SPCASCAN_N31 SPCASCAN_N32 SPCASCAN_N33 
+ SPCASCAN_N34 SPCASCAN_N35 SPCASCAN_N36 SPCASCAN_N37 FE_OFN14_test_se_i 
+ FE_OFN18_test_se_i FE_OFN4_test_se_i FE_OFN5_test_se_i FE_OFN8_test_se_i 
+ SPCBSCAN_N41 SPCBSCAN_N42 FE_OFN51_test_se_i FE_OFN53_test_se_i 
+ FE_OFN54_test_se_i clk_i__L3_N19 clk_i__L3_N27 clk_i__L3_N9 
XFE_OFC169_n149 CLKBUFX3 $PINS Y=FE_OFN169_n149 A=n148 
XFE_OFC168_n148 CLKBUFX2 $PINS Y=FE_OFN168_n148 A=n148 
XFE_OFC141_n35 CLKBUFX2 $PINS Y=FE_OFN141_n35 A=FE_OFN140_n35 
XFE_OFC140_n35 CLKBUFX2 $PINS Y=FE_OFN140_n35 A=n35 
XFE_OFC139_n37 CLKBUFX2 $PINS Y=FE_OFN139_n37 A=FE_OFN138_n37 
XFE_OFC138_n37 CLKBUFX2 $PINS Y=FE_OFN138_n37 A=n37 
XFE_OFC137_n36 CLKBUFX2 $PINS Y=FE_OFN137_n36 A=FE_OFN136_n36 
XFE_OFC136_n36 CLKBUFX2 $PINS Y=FE_OFN136_n36 A=n36 
XFE_OFC52_test_se_i CLKBUFX2 $PINS Y=FE_OFN52_test_se_i A=FE_OFN51_test_se_i 
XFE_OFC25_SPCASCAN_N6 CLKBUFX2 $PINS Y=SPCASCAN_N6 A=FE_OFN25_SPCASCAN_N6 
XFE_OFC24_MEM_WB_WBControl_0_ CLKBUFX2 $PINS Y=WB[0] 
+ A=FE_OFN24_MEM_WB_WBControl_0_ 
XU2 CLKBUFX2 $PINS Y=n40 A=stall 
XU3 MX2XL $PINS Y=n107 S0=n144 B=RegisterRd[0] A=EX_RegisterRd[0] 
XU4 MX2XL $PINS Y=n108 S0=n144 B=RegisterRd[1] A=EX_RegisterRd[1] 
XU5 MX2XL $PINS Y=n110 S0=n144 B=RegisterRd[3] A=EX_RegisterRd[3] 
XU6 MX2XL $PINS Y=n109 S0=n144 B=RegisterRd[2] A=EX_RegisterRd[2] 
XU7 MX2XL $PINS Y=n111 S0=n144 B=RegisterRd[4] A=EX_RegisterRd[4] 
XU8 MX2XL $PINS Y=n106 S0=n144 B=WB[1] A=EX_WB[1] 
XU9 CLKINVX1 $PINS Y=n36 A=n40 
XU10 CLKINVX1 $PINS Y=n37 A=n40 
XU12 CLKINVX1 $PINS Y=n35 A=n144 
XU16 CLKBUFX3 $PINS Y=n144 A=n40 
XU17 CLKBUFX3 $PINS Y=n147 A=n146 
XU18 CLKBUFX3 $PINS Y=n148 A=n146 
XU20 CLKBUFX3 $PINS Y=n150 A=n146 
XU25 CLKBUFX3 $PINS Y=n146 A=rst 
XU26 OAI2BB2XL $PINS Y=n112 B1=FE_OFN140_n35 B0=n41 A1N=FE_OFN138_n37 
+ A0N=EX_ALUresult[0] 
XU27 OAI2BB2XL $PINS Y=n113 B1=FE_OFN140_n35 B0=n42 A1N=FE_OFN137_n36 
+ A0N=EX_ALUresult[1] 
XU28 OAI2BB2XL $PINS Y=n114 B1=FE_OFN140_n35 B0=SPCASCAN_N6 A1N=FE_OFN137_n36 
+ A0N=EX_ALUresult[2] 
XU29 OAI2BB2XL $PINS Y=n115 B1=FE_OFN140_n35 B0=n44 A1N=FE_OFN138_n37 
+ A0N=EX_ALUresult[3] 
XU30 OAI2BB2XL $PINS Y=n116 B1=FE_OFN140_n35 B0=n45 A1N=FE_OFN138_n37 
+ A0N=EX_ALUresult[4] 
XU31 OAI2BB2XL $PINS Y=n117 B1=FE_OFN140_n35 B0=n46 A1N=FE_OFN138_n37 
+ A0N=EX_ALUresult[5] 
XU32 OAI2BB2XL $PINS Y=n118 B1=FE_OFN137_n36 B0=n47 A1N=FE_OFN138_n37 
+ A0N=EX_ALUresult[6] 
XU33 OAI2BB2XL $PINS Y=n119 B1=n35 B0=SPCASCAN_N36 A1N=FE_OFN138_n37 
+ A0N=EX_ALUresult[7] 
XU34 OAI2BB2XL $PINS Y=n120 B1=FE_OFN140_n35 B0=n49 A1N=FE_OFN138_n37 
+ A0N=EX_ALUresult[8] 
XU35 OAI2BB2XL $PINS Y=n121 B1=FE_OFN140_n35 B0=n50 A1N=FE_OFN138_n37 
+ A0N=EX_ALUresult[9] 
XU36 OAI2BB2XL $PINS Y=n122 B1=FE_OFN141_n35 B0=n51 A1N=FE_OFN139_n37 
+ A0N=EX_ALUresult[10] 
XU37 OAI2BB2XL $PINS Y=n123 B1=FE_OFN141_n35 B0=n52 A1N=FE_OFN139_n37 
+ A0N=EX_ALUresult[11] 
XU38 OAI2BB2XL $PINS Y=n124 B1=FE_OFN141_n35 B0=n53 A1N=FE_OFN139_n37 
+ A0N=EX_ALUresult[12] 
XU39 OAI2BB2XL $PINS Y=n125 B1=FE_OFN141_n35 B0=n54 A1N=FE_OFN139_n37 
+ A0N=EX_ALUresult[13] 
XU40 OAI2BB2XL $PINS Y=n126 B1=FE_OFN141_n35 B0=n55 A1N=FE_OFN139_n37 
+ A0N=EX_ALUresult[14] 
XU41 OAI2BB2XL $PINS Y=n127 B1=FE_OFN141_n35 B0=n56 A1N=FE_OFN139_n37 
+ A0N=EX_ALUresult[15] 
XU42 OAI2BB2XL $PINS Y=n128 B1=FE_OFN141_n35 B0=n57 A1N=FE_OFN139_n37 
+ A0N=EX_ALUresult[16] 
XU43 OAI2BB2XL $PINS Y=n129 B1=FE_OFN141_n35 B0=n58 A1N=FE_OFN139_n37 
+ A0N=EX_ALUresult[17] 
XU44 OAI2BB2XL $PINS Y=n130 B1=FE_OFN141_n35 B0=n59 A1N=FE_OFN139_n37 
+ A0N=EX_ALUresult[18] 
XU45 OAI2BB2XL $PINS Y=n131 B1=FE_OFN137_n36 B0=n60 A1N=FE_OFN139_n37 
+ A0N=EX_ALUresult[19] 
XU46 OAI2BB2XL $PINS Y=n132 B1=FE_OFN137_n36 B0=n61 A1N=FE_OFN139_n37 
+ A0N=EX_ALUresult[20] 
XU47 OAI2BB2XL $PINS Y=n133 B1=FE_OFN137_n36 B0=n62 A1N=FE_OFN137_n36 
+ A0N=EX_ALUresult[21] 
XU48 OAI2BB2XL $PINS Y=n134 B1=FE_OFN137_n36 B0=SPCASCAN_N30 A1N=FE_OFN139_n37 
+ A0N=EX_ALUresult[22] 
XU49 OAI2BB2XL $PINS Y=n135 B1=FE_OFN141_n35 B0=SPCASCAN_N32 A1N=FE_OFN139_n37 
+ A0N=EX_ALUresult[23] 
XU50 OAI2BB2XL $PINS Y=n136 B1=FE_OFN141_n35 B0=SPCBSCAN_N42 A1N=FE_OFN137_n36 
+ A0N=EX_ALUresult[24] 
XU51 OAI2BB2XL $PINS Y=n137 B1=FE_OFN141_n35 B0=n66 A1N=FE_OFN137_n36 
+ A0N=EX_ALUresult[25] 
XU52 OAI2BB2XL $PINS Y=n138 B1=FE_OFN141_n35 B0=n67 A1N=FE_OFN137_n36 
+ A0N=EX_ALUresult[26] 
XU53 OAI2BB2XL $PINS Y=n139 B1=FE_OFN137_n36 B0=n68 A1N=FE_OFN137_n36 
+ A0N=EX_ALUresult[27] 
XU54 OAI2BB2XL $PINS Y=n140 B1=FE_OFN137_n36 B0=n69 A1N=FE_OFN137_n36 
+ A0N=EX_ALUresult[28] 
XU55 OAI2BB2XL $PINS Y=n141 B1=FE_OFN141_n35 B0=n70 A1N=FE_OFN137_n36 
+ A0N=EX_ALUresult[29] 
XU56 OAI2BB2XL $PINS Y=n142 B1=FE_OFN138_n37 B0=n71 A1N=FE_OFN137_n36 
+ A0N=EX_ALUresult[30] 
XU57 OAI2BB2XL $PINS Y=n143 B1=FE_OFN137_n36 B0=SPCASCAN_N34 A1N=FE_OFN137_n36 
+ A0N=EX_ALUresult[31] 
XU58 OAI2BB2XL $PINS Y=n73 B1=FE_OFN136_n36 B0=n2 A1N=FE_OFN136_n36 
+ A0N=read_MemoryData[0] 
XU59 OAI2BB2XL $PINS Y=n74 B1=FE_OFN140_n35 B0=n3 A1N=FE_OFN136_n36 
+ A0N=read_MemoryData[1] 
XU60 OAI2BB2XL $PINS Y=n75 B1=FE_OFN136_n36 B0=n4 A1N=FE_OFN136_n36 
+ A0N=read_MemoryData[2] 
XU61 OAI2BB2XL $PINS Y=n76 B1=FE_OFN140_n35 B0=n5 A1N=FE_OFN136_n36 
+ A0N=read_MemoryData[3] 
XU62 OAI2BB2XL $PINS Y=n77 B1=FE_OFN140_n35 B0=n6 A1N=n37 
+ A0N=read_MemoryData[4] 
XU63 OAI2BB2XL $PINS Y=n78 B1=n36 B0=n7 A1N=n37 A0N=read_MemoryData[5] 
XU64 OAI2BB2XL $PINS Y=n79 B1=n36 B0=n8 A1N=n37 A0N=read_MemoryData[6] 
XU65 OAI2BB2XL $PINS Y=n80 B1=FE_OFN140_n35 B0=n9 A1N=n37 
+ A0N=read_MemoryData[7] 
XU66 OAI2BB2XL $PINS Y=n81 B1=FE_OFN140_n35 B0=n10 A1N=n37 
+ A0N=read_MemoryData[8] 
XU67 OAI2BB2XL $PINS Y=n82 B1=FE_OFN140_n35 B0=n11 A1N=n37 
+ A0N=read_MemoryData[9] 
XU68 OAI2BB2XL $PINS Y=n83 B1=n36 B0=n12 A1N=n37 A0N=read_MemoryData[10] 
XU69 OAI2BB2XL $PINS Y=n84 B1=FE_OFN140_n35 B0=n13 A1N=n37 
+ A0N=read_MemoryData[11] 
XU70 OAI2BB2XL $PINS Y=n85 B1=FE_OFN141_n35 B0=n14 A1N=FE_OFN138_n37 
+ A0N=read_MemoryData[12] 
XU71 OAI2BB2XL $PINS Y=n86 B1=FE_OFN141_n35 B0=n15 A1N=FE_OFN139_n37 
+ A0N=read_MemoryData[13] 
XU72 OAI2BB2XL $PINS Y=n87 B1=FE_OFN141_n35 B0=n16 A1N=FE_OFN139_n37 
+ A0N=read_MemoryData[14] 
XU73 OAI2BB2XL $PINS Y=n88 B1=FE_OFN141_n35 B0=n17 A1N=FE_OFN139_n37 
+ A0N=read_MemoryData[15] 
XU74 OAI2BB2XL $PINS Y=n89 B1=FE_OFN136_n36 B0=n18 A1N=FE_OFN136_n36 
+ A0N=read_MemoryData[16] 
XU75 OAI2BB2XL $PINS Y=n90 B1=FE_OFN139_n37 B0=n19 A1N=FE_OFN139_n37 
+ A0N=read_MemoryData[17] 
XU76 OAI2BB2XL $PINS Y=n91 B1=FE_OFN140_n35 B0=n20 A1N=FE_OFN136_n36 
+ A0N=read_MemoryData[18] 
XU77 OAI2BB2XL $PINS Y=n92 B1=FE_OFN141_n35 B0=n21 A1N=FE_OFN139_n37 
+ A0N=read_MemoryData[19] 
XU78 OAI2BB2XL $PINS Y=n93 B1=FE_OFN141_n35 B0=n22 A1N=FE_OFN137_n36 
+ A0N=read_MemoryData[20] 
XU79 OAI2BB2XL $PINS Y=n94 B1=FE_OFN138_n37 B0=n23 A1N=FE_OFN138_n37 
+ A0N=read_MemoryData[21] 
XU80 OAI2BB2XL $PINS Y=n95 B1=FE_OFN136_n36 B0=n24 A1N=FE_OFN136_n36 
+ A0N=read_MemoryData[22] 
XU81 OAI2BB2XL $PINS Y=n96 B1=FE_OFN136_n36 B0=n25 A1N=FE_OFN136_n36 
+ A0N=read_MemoryData[23] 
XU82 OAI2BB2XL $PINS Y=n97 B1=n37 B0=n26 A1N=n36 A0N=read_MemoryData[24] 
XU83 OAI2BB2XL $PINS Y=n98 B1=n35 B0=n27 A1N=n37 A0N=read_MemoryData[25] 
XU84 OAI2BB2XL $PINS Y=n99 B1=FE_OFN140_n35 B0=n28 A1N=n36 
+ A0N=read_MemoryData[26] 
XU85 OAI2BB2XL $PINS Y=n100 B1=FE_OFN140_n35 B0=n29 A1N=n36 
+ A0N=read_MemoryData[27] 
XU86 OAI2BB2XL $PINS Y=n101 B1=n35 B0=n30 A1N=n36 A0N=read_MemoryData[28] 
XU87 OAI2BB2XL $PINS Y=n102 B1=n35 B0=n31 A1N=n37 A0N=read_MemoryData[29] 
XU88 OAI2BB2XL $PINS Y=n103 B1=n37 B0=n32 A1N=n36 A0N=read_MemoryData[30] 
XU89 OAI2BB2XL $PINS Y=n104 B1=n37 B0=n33 A1N=n36 A0N=read_MemoryData[31] 
XU90 CLKMX2X2 $PINS Y=n105 S0=n144 B=WB[0] A=EX_WB[0] 
XMemoryData_reg[31] SDFFRXL $PINS SI=SPCASCAN_N37 SE=test_se RN=FE_OFN169_n149 
+ QN=n33 Q=MemoryData[31] D=n104 CK=clk 
XMemoryData_reg[30] SDFFRXL $PINS SI=n33 SE=test_se RN=FE_OFN169_n149 QN=n32 
+ Q=MemoryData[30] D=n103 CK=clk 
XMemoryData_reg[29] SDFFRXL $PINS SI=n32 SE=test_se RN=FE_OFN169_n149 QN=n31 
+ Q=MemoryData[29] D=n102 CK=clk 
XMemoryData_reg[28] SDFFRXL $PINS SI=n31 SE=test_se RN=FE_OFN169_n149 QN=n30 
+ Q=MemoryData[28] D=n101 CK=clk 
XMemoryData_reg[27] SDFFRXL $PINS SI=n30 SE=test_se RN=FE_OFN169_n149 QN=n29 
+ Q=MemoryData[27] D=n100 CK=clk 
XMemoryData_reg[26] SDFFRXL $PINS SI=n29 SE=FE_OFN5_test_se_i RN=FE_OFN169_n149 
+ QN=n28 Q=MemoryData[26] D=n99 CK=clk 
XMemoryData_reg[25] SDFFRXL $PINS SI=n26 SE=FE_OFN5_test_se_i RN=FE_OFN169_n149 
+ QN=n27 Q=MemoryData[25] D=n98 CK=clk 
XMemoryData_reg[24] SDFFRXL $PINS SI=n12 SE=FE_OFN5_test_se_i RN=FE_OFN169_n149 
+ QN=n26 Q=MemoryData[24] D=n97 CK=clk 
XMemoryData_reg[23] SDFFRXL $PINS SI=n2 SE=FE_OFN52_test_se_i RN=n148 QN=n25 
+ Q=MemoryData[23] D=n96 CK=clk 
XMemoryData_reg[22] SDFFRXL $PINS SI=n20 SE=FE_OFN52_test_se_i RN=n148 QN=n24 
+ Q=MemoryData[22] D=n95 CK=clk 
XMemoryData_reg[21] SDFFRXL $PINS SI=n51 SE=FE_OFN52_test_se_i 
+ RN=FE_OFN168_n148 QN=n23 Q=MemoryData[21] D=n94 CK=clk_i__L3_N19 
XMemoryData_reg[20] SDFFRXL $PINS SI=n52 SE=FE_OFN52_test_se_i 
+ RN=FE_OFN168_n148 QN=n22 Q=MemoryData[20] D=n93 CK=clk_i__L3_N19 
XMemoryData_reg[19] SDFFRXL $PINS SI=n16 SE=FE_OFN52_test_se_i 
+ RN=FE_OFN168_n148 QN=n21 Q=MemoryData[19] D=n92 CK=clk_i__L3_N19 
XMemoryData_reg[18] SDFFRXL $PINS SI=n25 SE=FE_OFN52_test_se_i RN=n148 QN=n20 
+ Q=MemoryData[18] D=n91 CK=clk 
XMemoryData_reg[17] SDFFRXL $PINS SI=n22 SE=FE_OFN52_test_se_i 
+ RN=FE_OFN168_n148 QN=n19 Q=MemoryData[17] D=n90 CK=clk_i__L3_N19 
XMemoryData_reg[16] SDFFRXL $PINS SI=n14 SE=FE_OFN52_test_se_i RN=n148 QN=n18 
+ Q=MemoryData[16] D=n89 CK=clk 
XMemoryData_reg[15] SDFFRXL $PINS SI=n15 SE=FE_OFN52_test_se_i 
+ RN=FE_OFN168_n148 QN=n17 Q=MemoryData[15] D=n88 CK=clk_i__L3_N19 
XMemoryData_reg[14] SDFFRXL $PINS SI=n17 SE=FE_OFN52_test_se_i 
+ RN=FE_OFN168_n148 QN=n16 Q=MemoryData[14] D=n87 CK=clk_i__L3_N19 
XMemoryData_reg[13] SDFFRXL $PINS SI=n18 SE=FE_OFN52_test_se_i 
+ RN=FE_OFN168_n148 QN=n15 Q=MemoryData[13] D=n86 CK=clk_i__L3_N19 
XMemoryData_reg[12] SDFFRXL $PINS SI=n23 SE=FE_OFN52_test_se_i 
+ RN=FE_OFN168_n148 QN=n14 Q=MemoryData[12] D=n85 CK=clk_i__L3_N19 
XMemoryData_reg[11] SDFFRXL $PINS SI=n28 SE=FE_OFN5_test_se_i RN=n147 QN=n13 
+ Q=MemoryData[11] D=n84 CK=clk 
XMemoryData_reg[10] SDFFRXL $PINS SI=n13 SE=FE_OFN5_test_se_i RN=n147 QN=n12 
+ Q=MemoryData[10] D=n83 CK=clk 
XMemoryData_reg[9] SDFFRXL $PINS SI=n6 SE=FE_OFN5_test_se_i RN=n147 QN=n11 
+ Q=MemoryData[9] D=n82 CK=clk 
XMemoryData_reg[8] SDFFRXL $PINS SI=n11 SE=FE_OFN5_test_se_i RN=n147 QN=n10 
+ Q=MemoryData[8] D=n81 CK=clk 
XMemoryData_reg[7] SDFFRXL $PINS SI=n7 SE=FE_OFN5_test_se_i RN=n147 QN=n9 
+ Q=MemoryData[7] D=n80 CK=clk 
XMemoryData_reg[6] SDFFRXL $PINS SI=n27 SE=FE_OFN5_test_se_i RN=n147 QN=n8 
+ Q=MemoryData[6] D=n79 CK=clk 
XMemoryData_reg[5] SDFFRXL $PINS SI=n8 SE=FE_OFN5_test_se_i RN=n147 QN=n7 
+ Q=MemoryData[5] D=n78 CK=clk 
XMemoryData_reg[4] SDFFRXL $PINS SI=n9 SE=FE_OFN5_test_se_i RN=n147 QN=n6 
+ Q=MemoryData[4] D=n77 CK=clk 
XMemoryData_reg[3] SDFFRXL $PINS SI=n10 SE=FE_OFN5_test_se_i RN=n147 QN=n5 
+ Q=MemoryData[3] D=n76 CK=clk 
XMemoryData_reg[2] SDFFRXL $PINS SI=n5 SE=FE_OFN5_test_se_i RN=n147 QN=n4 
+ Q=MemoryData[2] D=n75 CK=clk 
XMemoryData_reg[1] SDFFRXL $PINS SI=n4 SE=FE_OFN5_test_se_i RN=n147 QN=n3 
+ Q=MemoryData[1] D=n74 CK=clk 
XMemoryData_reg[0] SDFFRXL $PINS SI=n3 SE=FE_OFN5_test_se_i RN=n147 QN=n2 
+ Q=MemoryData[0] D=n73 CK=clk 
XALUresult_reg[31] SDFFRXL $PINS SI=SPCASCAN_N35 SE=FE_OFN51_test_se_i RN=n148 
+ QN=SPCASCAN_N34 Q=ALUresult[31] D=n143 CK=clk 
XALUresult_reg[30] SDFFRXL $PINS SI=n70 SE=FE_OFN51_test_se_i RN=n148 QN=n71 
+ Q=ALUresult[30] D=n142 CK=clk 
XALUresult_reg[29] SDFFRXL $PINS SI=n68 SE=FE_OFN4_test_se_i RN=n148 QN=n70 
+ Q=ALUresult[29] D=n141 CK=clk 
XALUresult_reg[28] SDFFRXL $PINS SI=n71 SE=FE_OFN52_test_se_i RN=n148 QN=n69 
+ Q=ALUresult[28] D=n140 CK=clk 
XALUresult_reg[27] SDFFRXL $PINS SI=n54 SE=FE_OFN52_test_se_i RN=n148 QN=n68 
+ Q=ALUresult[27] D=n139 CK=clk_i__L3_N19 
XALUresult_reg[26] SDFFRXL $PINS SI=SPCASCAN_N33 SE=FE_OFN4_test_se_i RN=n148 
+ QN=n67 Q=ALUresult[26] D=n138 CK=clk_i__L3_N19 
XALUresult_reg[25] SDFFRXL $PINS SI=n62 SE=FE_OFN53_test_se_i RN=n148 QN=n66 
+ Q=ALUresult[25] D=n137 CK=clk_i__L3_N19 
XALUresult_reg[24] SDFFRXL $PINS SI=n53 SE=FE_OFN4_test_se_i RN=n148 
+ QN=SPCBSCAN_N42 Q=ALUresult[24] D=n136 CK=clk_i__L3_N19 
XALUresult_reg[23] SDFFRXL $PINS SI=SPCBSCAN_N41 SE=FE_OFN53_test_se_i RN=n148 
+ QN=SPCASCAN_N32 Q=ALUresult[23] D=n135 CK=clk_i__L3_N19 
XALUresult_reg[22] SDFFRXL $PINS SI=SPCASCAN_N31 SE=FE_OFN53_test_se_i RN=n148 
+ QN=SPCASCAN_N30 Q=ALUresult[22] D=n134 CK=clk_i__L3_N19 
XALUresult_reg[21] SDFFRXL $PINS SI=n61 SE=FE_OFN53_test_se_i RN=n148 QN=n62 
+ Q=ALUresult[21] D=n133 CK=clk_i__L3_N19 
XALUresult_reg[20] SDFFRXL $PINS SI=n56 SE=FE_OFN53_test_se_i RN=FE_OFN168_n148 
+ QN=n61 Q=ALUresult[20] D=n132 CK=clk_i__L3_N19 
XALUresult_reg[19] SDFFRXL $PINS SI=n21 SE=FE_OFN53_test_se_i RN=FE_OFN168_n148 
+ QN=n60 Q=ALUresult[19] D=n131 CK=clk_i__L3_N19 
XALUresult_reg[18] SDFFRXL $PINS SI=n58 SE=FE_OFN53_test_se_i RN=FE_OFN168_n148 
+ QN=n59 Q=ALUresult[18] D=n130 CK=clk_i__L3_N19 
XALUresult_reg[17] SDFFRXL $PINS SI=n55 SE=FE_OFN53_test_se_i RN=FE_OFN168_n148 
+ QN=n58 Q=ALUresult[17] D=n129 CK=clk_i__L3_N19 
XALUresult_reg[16] SDFFRXL $PINS SI=n59 SE=FE_OFN54_test_se_i RN=FE_OFN168_n148 
+ QN=n57 Q=ALUresult[16] D=n128 CK=clk_i__L3_N19 
XALUresult_reg[15] SDFFRXL $PINS SI=n57 SE=FE_OFN53_test_se_i RN=FE_OFN168_n148 
+ QN=n56 Q=ALUresult[15] D=n127 CK=clk_i__L3_N19 
XALUresult_reg[14] SDFFRXL $PINS SI=n60 SE=FE_OFN53_test_se_i RN=FE_OFN168_n148 
+ QN=n55 Q=ALUresult[14] D=n126 CK=clk_i__L3_N19 
XALUresult_reg[13] SDFFRXL $PINS SI=n66 SE=FE_OFN52_test_se_i RN=FE_OFN168_n148 
+ QN=n54 Q=ALUresult[13] D=n125 CK=clk_i__L3_N19 
XALUresult_reg[12] SDFFRXL $PINS SI=n19 SE=FE_OFN52_test_se_i RN=FE_OFN168_n148 
+ QN=n53 Q=ALUresult[12] D=n124 CK=clk_i__L3_N19 
XALUresult_reg[11] SDFFRXL $PINS SI=n67 SE=FE_OFN52_test_se_i RN=FE_OFN168_n148 
+ QN=n52 Q=ALUresult[11] D=n123 CK=clk_i__L3_N19 
XALUresult_reg[10] SDFFRXL $PINS SI=n50 SE=FE_OFN52_test_se_i RN=FE_OFN168_n148 
+ QN=n51 Q=ALUresult[10] D=n122 CK=clk 
XALUresult_reg[9] SDFFRXL $PINS SI=n49 SE=FE_OFN52_test_se_i RN=FE_OFN168_n148 
+ QN=n50 Q=ALUresult[9] D=n121 CK=clk 
XALUresult_reg[8] SDFFRXL $PINS SI=n24 SE=FE_OFN52_test_se_i RN=n150 QN=n49 
+ Q=ALUresult[8] D=n120 CK=clk 
XALUresult_reg[7] SDFFRXL $PINS SI=n47 SE=FE_OFN51_test_se_i RN=n150 
+ QN=SPCASCAN_N36 Q=ALUresult[7] D=n119 CK=clk 
XALUresult_reg[6] SDFFRXL $PINS SI=n69 SE=FE_OFN5_test_se_i RN=n150 QN=n47 
+ Q=ALUresult[6] D=n118 CK=clk 
XALUresult_reg[5] SDFFRXL $PINS SI=FE_PT1_ICACHE_addr_i_25_ 
+ SE=FE_OFN5_test_se_i RN=n150 QN=n46 Q=ALUresult[5] D=n117 CK=clk 
XALUresult_reg[4] SDFFRXL $PINS SI=n44 SE=FE_OFN5_test_se_i RN=n150 QN=n45 
+ Q=ALUresult[4] D=n116 CK=clk 
XALUresult_reg[3] SDFFRXL $PINS SI=n46 SE=FE_OFN5_test_se_i RN=n150 QN=n44 
+ Q=ALUresult[3] D=n115 CK=clk 
XALUresult_reg[2] SDFFRXL $PINS SI=n42 SE=FE_OFN51_test_se_i RN=n150 
+ QN=FE_OFN25_SPCASCAN_N6 Q=ALUresult[2] D=n114 CK=clk 
XALUresult_reg[1] SDFFRXL $PINS SI=n41 SE=FE_OFN51_test_se_i RN=n150 QN=n42 
+ Q=ALUresult[1] D=n113 CK=clk 
XALUresult_reg[0] SDFFRXL $PINS SI=n45 SE=FE_OFN51_test_se_i RN=n150 QN=n41 
+ Q=ALUresult[0] D=n112 CK=clk 
XWB_reg[1] SDFFRXL $PINS SI=n161 SE=FE_OFN14_test_se_i RN=FE_OFN169_n149 
+ QN=test_so Q=n169 D=n106 CK=clk_i__L3_N9 
XRegisterRd_reg[1] SDFFRXL $PINS SI=n156 SE=FE_OFN14_test_se_i 
+ RN=FE_OFN169_n149 QN=n161 Q=n173 D=n108 CK=clk_i__L3_N9 
XRegisterRd_reg[2] SDFFRXL $PINS SI=n159 SE=FE_OFN14_test_se_i RN=n150 
+ QN=SPCASCAN_N10 Q=n172 D=n109 CK=clk_i__L3_N9 
XRegisterRd_reg[3] SDFFRXL $PINS SI=n157 SE=FE_OFN14_test_se_i RN=n150 QN=n159 
+ Q=n171 D=n110 CK=clk_i__L3_N9 
XWB_reg[0] SDFFRXL $PINS SI=FE_PT1_ICACHE_addr_i_23_ SE=FE_OFN18_test_se_i 
+ RN=rst QN=n158 Q=FE_OFN24_MEM_WB_WBControl_0_ D=n105 CK=clk_i__L3_N27 
XRegisterRd_reg[4] SDFFRXL $PINS SI=test_so SE=FE_OFN14_test_se_i RN=n150 
+ QN=n157 Q=n170 D=n111 CK=clk_i__L3_N9 
XRegisterRd_reg[0] SDFFRXL $PINS SI=n158 SE=FE_OFN8_test_se_i RN=FE_OFN169_n149 
+ QN=n156 Q=n174 D=n107 CK=clk_i__L3_N9 
XU1 CLKBUFX2 $PINS Y=RegisterRd[4] A=n170 
XU91 CLKBUFX2 $PINS Y=WB[1] A=n169 
XU92 CLKBUFX2 $PINS Y=RegisterRd[2] A=n172 
XU93 CLKBUFX2 $PINS Y=RegisterRd[3] A=n171 
XU94 CLKBUFX2 $PINS Y=RegisterRd[0] A=n174 
XU95 CLKBUFX2 $PINS Y=RegisterRd[1] A=n173 
.ENDS

.SUBCKT Execution_DW_cmp_0 A[31] A[30] A[29] A[28] A[27] A[26] A[25] A[24] 
+ A[23] A[22] A[21] A[20] A[19] A[18] A[17] A[16] A[15] A[14] A[13] A[12] A[11] 
+ A[10] A[9] A[8] A[7] A[6] A[5] A[4] A[3] A[2] A[1] A[0] B[31] B[30] B[29] 
+ B[28] B[27] B[26] B[25] B[24] B[23] B[22] B[21] B[20] B[19] B[18] B[17] B[16] 
+ B[15] B[14] B[13] B[12] B[11] B[10] B[9] B[8] B[7] B[6] B[5] B[4] B[3] B[2] 
+ B[1] B[0] TC GE_LT GE_GT_EQ GE_LT_GT_LE EQ_NE n676 n820 n908 n807 n964 n832 
+ n780 n737 n895 n977 n794 n767 n235 n846 n236 n620 n606 n623 n943 n624 n621 
+ n725 n724 n727 n998 n1018 n728 n237 n954 n582 
XU657 OAI21XL $PINS Y=n1317 B0=n1334 A1=n1333 A0=n1332 
XU658 AOI32XL $PINS Y=n1372 B1=B[3] B0=n895 A2=n1374 A1=n908 A0=B[2] 
XU659 OAI211X1 $PINS Y=n1353 C0=n1358 B0=n1360 A1=n780 A0=B[12] 
XU661 NAND2BXL $PINS Y=n1360 B=A[13] AN=B[13] 
XU662 AOI32XL $PINS Y=n1359 B1=B[13] B0=n767 A2=n1360 A1=n780 A0=B[12] 
XU663 CLKINVX1 $PINS Y=n1312 A=B[1] 
XU664 AOI21XL $PINS Y=n1342 B0=n1344 A1=A[26] A0=n727 
XU665 OAI211X1 $PINS Y=n1350 C0=n1352 B0=n1351 A1=n832 A0=B[8] 
XU666 AOI32XL $PINS Y=n1363 B1=B[9] B0=n820 A2=n1351 A1=n832 A0=B[8] 
XU667 AND2XL $PINS Y=n1361 B=n954 A=A[15] 
XU668 OAI22XL $PINS Y=n1333 B1=n1340 B0=n1342 A1=n1341 A0=n1340 
XU669 OAI22XL $PINS Y=n1334 B1=n1335 B0=n1336 A1=n1280 A0=n1335 
XU670 OAI32XL $PINS Y=n1321 B1=n621 B0=A[23] A2=n1325 A1=A[22] A0=n620 
XU671 OAI32XL $PINS Y=n1365 B1=n846 B0=A[7] A2=n1369 A1=A[6] A0=n237 
XU672 OAI32XL $PINS Y=n1326 B1=n582 B0=A[19] A2=n1330 A1=A[18] A0=n606 
XU673 AOI211XL $PINS Y=n1331 C0=n1323 B0=n1324 A1=A[20] A0=n623 
XU675 AOI21XL $PINS Y=n1367 B0=n1369 A1=A[6] A0=n237 
XU676 AOI21XL $PINS Y=n1327 B0=n1330 A1=A[18] A0=n606 
XU677 OAI32XL $PINS Y=n1322 B1=n624 B0=A[21] A2=n1324 A1=A[20] A0=n623 
XU678 OAI32XL $PINS Y=n1341 B1=n725 B0=A[25] A2=n1343 A1=A[24] A0=n724 
XU679 OAI211XL $PINS Y=n1314 C0=n1346 B0=n1329 A1=n737 A0=B[16] 
XU680 NAND3XL $PINS Y=n1347 C=n1371 B=n1370 A=n1367 
XU681 NAND2BXL $PINS Y=n1364 B=A[11] AN=B[11] 
XU683 AND2XL $PINS Y=n1343 B=n725 A=A[25] 
XU684 AND2XL $PINS Y=n1324 B=n624 A=A[21] 
XU685 AND2XL $PINS Y=n1344 B=n728 A=A[27] 
XU686 AND2XL $PINS Y=n1330 B=n582 A=A[19] 
XU687 AND2X2 $PINS Y=n1339 B=n1018 A=A[31] 
XU688 AND2XL $PINS Y=n1369 B=n846 A=A[7] 
XU689 AO21XL $PINS Y=n1323 B0=n1325 A1=A[22] A0=n620 
XU690 AND2XL $PINS Y=n1325 B=n621 A=A[23] 
XU699 NOR2BXL $PINS Y=n1368 B=B[5] AN=A[5] 
XU700 NAND2BXL $PINS Y=n1329 B=A[17] AN=B[17] 
XU701 NAND2BXL $PINS Y=n1351 B=A[9] AN=B[9] 
XU702 NAND2BXL $PINS Y=n1374 B=A[3] AN=B[3] 
XU707 OAI2BB1X1 $PINS Y=n1318 B0=n1320 A1N=n1277 A0N=n1331 
XU708 OA22X1 $PINS Y=n1277 B1=n1326 B0=n1327 A1=n1294 A0=n1326 
XU709 CLKINVX1 $PINS Y=n1287 A=n1323 
XU710 INVXL $PINS Y=n1298 A=B[14] 
XU712 CLKINVX1 $PINS Y=n1299 A=n1359 
XU723 CLKINVX1 $PINS Y=n1294 A=n1328 
XU725 CLKINVX1 $PINS Y=n1280 A=n1337 
XU726 OAI21XL $PINS Y=GE_LT_GT_LE B0=n1316 A1=n1315 A0=n1314 
XU727 OAI22XL $PINS Y=n1316 B1=n1317 B0=n1319 A1=n1318 A0=n1317 
XU728 OAI22XL $PINS Y=n1320 B1=n1321 B0=n1287 A1=n1322 A0=n1321 
XU729 AOI32X1 $PINS Y=n1328 B1=B[17] B0=n676 A2=n1329 A1=n737 A0=B[16] 
XU730 AOI32X1 $PINS Y=n1337 B1=B[29] B0=n977 A2=n1338 A1=n964 A0=B[28] 
XU731 OAI32X1 $PINS Y=n1335 B1=n1018 B0=A[31] A2=n1339 A1=A[30] A0=n998 
XU732 OAI32X1 $PINS Y=n1340 B1=n728 B0=A[27] A2=n1344 A1=A[26] A0=n727 
XU733 NAND3X1 $PINS Y=n1315 C=n1327 B=n1331 A=n1319 
XU734 AOI211X1 $PINS Y=n1319 C0=n1345 B0=n1343 A1=A[24] A0=n724 
XU735 NAND2BX1 $PINS Y=n1345 B=n1342 AN=n1332 
XU736 OAI211X1 $PINS Y=n1332 C0=n1336 B0=n1338 A1=n964 A0=B[28] 
XU737 AOI21X1 $PINS Y=n1336 B0=n1339 A1=A[30] A0=n998 
XU738 NAND2BX1 $PINS Y=n1338 B=A[29] AN=B[29] 
XU739 AOI32X1 $PINS Y=n1346 B1=n1350 B0=n1349 A2=n1349 A1=n1348 A0=n1347 
XU740 NOR2X1 $PINS Y=n1352 B=n1354 A=n1353 
XU741 OA21XL $PINS Y=n1349 B0=n1356 A1=n1355 A0=n1353 
XU742 OAI22XL $PINS Y=n1356 B1=n1357 B0=n1358 A1=n1299 A0=n1357 
XU743 OAI32X1 $PINS Y=n1357 B1=n954 B0=A[15] A2=n1361 A1=A[14] A0=n1298 
XU744 AO22X1 $PINS Y=n1355 B1=n1362 B0=n1354 A1=n1363 A0=n1362 
XU745 OAI21XL $PINS Y=n1354 B0=n1364 A1=n807 A0=B[10] 
XU746 AOI32X1 $PINS Y=n1362 B1=B[11] B0=n794 A2=n1364 A1=n807 A0=B[10] 
XU747 AOI21X1 $PINS Y=n1358 B0=n1361 A1=A[14] A0=n1298 
XU748 OAI22XL $PINS Y=n1348 B1=n1365 B0=n1367 A1=n1366 A0=n1365 
XU749 OAI32X1 $PINS Y=n1366 B1=n236 B0=A[5] A2=n1368 A1=A[4] A0=n235 
XU750 AOI221XL $PINS Y=n1371 C0=n1368 B1=n235 B0=A[4] A1=n1373 A0=n1372 
XU751 OAI21XL $PINS Y=n1373 B0=n1374 A1=n908 A0=B[2] 
XU752 OAI211X1 $PINS Y=n1370 C0=n1372 B0=n1375 A1=n1312 A0=A[1] 
XU753 AO22X1 $PINS Y=n1375 B1=A[1] B0=n1312 A1=A[0] A0=n943 
.ENDS

.SUBCKT Execution_DW_rightsh_0 A[31] A[30] A[29] A[28] A[27] A[26] A[25] A[24] 
+ A[23] A[22] A[21] A[20] A[19] A[18] A[17] A[16] A[15] A[14] A[13] A[12] A[11] 
+ A[10] A[9] A[8] A[7] A[6] A[5] A[4] A[3] A[2] A[1] A[0] DATA_TC SH[4] SH[3] 
+ SH[2] SH[1] SH[0] B[31] B[30] B[29] B[28] B[27] B[26] B[25] B[24] B[23] B[22] 
+ B[21] B[20] B[19] B[18] B[17] B[16] B[15] B[14] B[13] B[12] B[11] B[10] B[9] 
+ B[8] B[7] B[6] B[5] B[4] B[3] B[2] B[1] B[0] n921 n234 
XFE_OFC211_n236 CLKBUFX2 $PINS Y=FE_OFN211_n236 A=n236 
XFE_OFC208_n233 CLKBUFX2 $PINS Y=FE_OFN208_n233 A=n233 
XFE_OFC207_n225 CLKBUFX2 $PINS Y=FE_OFN207_n225 A=n225 
XU179 NOR2BX1 $PINS Y=n310 B=n230 AN=n323 
XU180 MXI3X1 $PINS Y=B[3] S1=n236 S0=n233 C=n285 B=n248 A=n284 
XU181 MXI3X1 $PINS Y=B[14] S1=FE_OFN211_n236 S0=FE_OFN208_n233 C=n292 B=n309 
+ A=n273 
XU182 MXI3X1 $PINS Y=B[12] S1=FE_OFN211_n236 S0=FE_OFN208_n233 C=n301 B=n313 
+ A=n283 
XU183 MXI3X1 $PINS Y=B[9] S1=n236 S0=n233 C=n260 B=n259 A=n258 
XU184 MXI2XL $PINS Y=n307 S0=n231 B=n330 A=n329 
XU185 MX2XL $PINS Y=n347 S0=n225 B=A[14] A=A[13] 
XU186 NAND2XL $PINS Y=n263 B=n235 A=n305 
XU187 INVXL $PINS Y=n249 A=n332 
XU188 CLKMX2X2 $PINS Y=n304 S0=n231 B=n324 A=n323 
XU189 NOR2X1 $PINS Y=B[21] B=n275 A=FE_OFN211_n236 
XU190 MXI3XL $PINS Y=B[15] S1=FE_OFN211_n236 S0=n233 C=n291 B=n307 A=n268 
XU191 MXI3XL $PINS Y=B[13] S1=n236 S0=n233 C=n300 B=n311 A=n278 
XU192 CLKINVX1 $PINS Y=n253 A=n271 
XU193 NAND2XL $PINS Y=n302 B=n235 A=n320 
XU194 NAND2XL $PINS Y=n303 B=n235 A=n322 
XU195 NAND2XL $PINS Y=n291 B=n235 A=n306 
XU196 NOR2XL $PINS Y=B[22] B=n270 A=FE_OFN211_n236 
XU197 INVX1 $PINS Y=n248 A=n286 
XU198 MXI2XL $PINS Y=n288 S0=SH[0] B=A[6] A=A[5] 
XU199 MXI2XL $PINS Y=n287 S0=SH[0] B=A[4] A=A[3] 
XU200 NOR2BXL $PINS Y=n338 B=FE_OFN207_n225 AN=A[31] 
XU201 MX2XL $PINS Y=n365 S0=n225 B=A[1] A=A[0] 
XU202 MX2XL $PINS Y=n346 S0=n225 B=A[16] A=A[15] 
XU203 MX2XL $PINS Y=n353 S0=FE_OFN207_n225 B=A[29] A=A[28] 
XU204 MX2XL $PINS Y=n354 S0=FE_OFN207_n225 B=A[27] A=A[26] 
XU205 MX2XL $PINS Y=n358 S0=FE_OFN207_n225 B=A[25] A=A[24] 
XU206 MX2XL $PINS Y=n343 S0=FE_OFN207_n225 B=A[26] A=A[25] 
XU207 MX2XL $PINS Y=n359 S0=FE_OFN207_n225 B=A[23] A=A[22] 
XU208 MX2XL $PINS Y=n340 S0=FE_OFN207_n225 B=A[24] A=A[23] 
XU209 MX2XL $PINS Y=n341 S0=FE_OFN207_n225 B=A[22] A=A[21] 
XU210 MX2XL $PINS Y=n357 S0=FE_OFN207_n225 B=A[19] A=A[18] 
XU211 MX2XL $PINS Y=n356 S0=FE_OFN207_n225 B=A[21] A=A[20] 
XU212 MX2XL $PINS Y=n344 S0=FE_OFN207_n225 B=A[20] A=A[19] 
XU213 MX2XL $PINS Y=n289 S0=n225 B=A[8] A=A[7] 
XU214 MX2XL $PINS Y=n318 S0=n225 B=A[12] A=A[11] 
XU215 MX2XL $PINS Y=n290 S0=n225 B=A[10] A=A[9] 
XU216 MX2XL $PINS Y=n299 S0=n225 B=A[9] A=A[8] 
XU217 MX2XL $PINS Y=n361 S0=n225 B=A[13] A=A[12] 
XU218 MX2XL $PINS Y=n360 S0=n225 B=A[11] A=A[10] 
XU219 MX2XL $PINS Y=n362 S0=FE_OFN207_n225 B=A[17] A=A[16] 
XU220 MX2XL $PINS Y=n363 S0=n225 B=A[15] A=A[14] 
XU221 MX2XL $PINS Y=n342 S0=FE_OFN207_n225 B=A[28] A=A[27] 
XU222 MX2XL $PINS Y=n298 S0=n225 B=A[7] A=A[6] 
XU223 MX2XL $PINS Y=n339 S0=FE_OFN207_n225 B=A[30] A=A[29] 
XU224 MX2XL $PINS Y=n345 S0=n225 B=A[18] A=A[17] 
XU225 MX2XL $PINS Y=n297 S0=n225 B=A[5] A=A[4] 
XU226 MX2XL $PINS Y=n355 S0=FE_OFN207_n225 B=A[31] A=A[30] 
XU227 MX2XL $PINS Y=n296 S0=n225 B=A[3] A=A[2] 
XU228 CLKINVX1 $PINS Y=n239 A=n327 
XU229 CLKINVX1 $PINS Y=n243 A=n307 
XU230 CLKINVX1 $PINS Y=n244 A=n309 
XU231 CLKINVX1 $PINS Y=n245 A=n311 
XU232 CLKINVX1 $PINS Y=n247 A=n259 
XU233 CLKINVX1 $PINS Y=n246 A=n313 
XU234 CLKINVX1 $PINS Y=n238 A=n302 
XU235 CLKINVX1 $PINS Y=n241 A=n303 
XU236 CLKINVX1 $PINS Y=n240 A=n263 
XU237 INVX3 $PINS Y=n228 A=n227 
XU239 INVX2 $PINS Y=n231 A=n230 
XU241 CLKINVX1 $PINS Y=n233 A=n235 
XU242 CLKINVX1 $PINS Y=n250 A=n337 
XU243 CLKINVX1 $PINS Y=n251 A=n352 
XU244 CLKINVX1 $PINS Y=n252 A=n277 
XU245 CLKBUFX3 $PINS Y=n225 A=SH[0] 
XU248 CLKBUFX3 $PINS Y=n236 A=SH[4] 
XU250 CLKINVX1 $PINS Y=n255 A=n288 
XU251 CLKINVX1 $PINS Y=n242 A=n295 
XU252 CLKBUFX3 $PINS Y=n227 A=SH[1] 
XU253 CLKBUFX3 $PINS Y=n230 A=SH[2] 
XU254 CLKINVX1 $PINS Y=n235 A=SH[3] 
XU256 CLKINVX1 $PINS Y=n254 A=n281 
XU258 MX3XL $PINS Y=B[8] S1=FE_OFN211_n236 S0=FE_OFN208_n233 C=n240 B=n262 
+ A=n261 
XU259 MXI2X1 $PINS Y=B[7] S0=FE_OFN211_n236 B=n265 A=n264 
XU260 MX3XL $PINS Y=n264 S1=FE_OFN208_n233 S0=n230 C=n268 B=n267 A=n266 
XU261 MXI2X1 $PINS Y=B[6] S0=n236 B=n270 A=n269 
XU262 MX3XL $PINS Y=n269 S1=FE_OFN208_n233 S0=n230 C=n273 B=n272 A=n271 
XU263 MXI2X1 $PINS Y=B[5] S0=n236 B=n275 A=n274 
XU264 MX3XL $PINS Y=n274 S1=n233 S0=n230 C=n278 B=n277 A=n276 
XU265 MXI2X1 $PINS Y=B[4] S0=FE_OFN211_n236 B=n280 A=n279 
XU266 MX3XL $PINS Y=n279 S1=FE_OFN208_n233 S0=n230 C=n283 B=n282 A=n281 
XU267 MX3XL $PINS Y=n284 S1=n230 S0=n227 C=n266 B=n288 A=n287 
XU268 MXI2X1 $PINS Y=n266 S0=n227 B=n290 A=n289 
XU269 NOR2X1 $PINS Y=B[31] B=n291 A=SH[4] 
XU270 NOR2X1 $PINS Y=B[30] B=n292 A=SH[4] 
XU271 MX3XL $PINS Y=B[2] S1=n236 S0=FE_OFN208_n233 C=n242 B=n294 A=n293 
XU272 MX3XL $PINS Y=n293 S1=n230 S0=n227 C=n253 B=n297 A=n296 
XU273 MXI2X1 $PINS Y=n271 S0=n227 B=n299 A=n298 
XU274 NOR2X1 $PINS Y=B[29] B=n300 A=SH[4] 
XU275 NOR2X1 $PINS Y=B[28] B=n301 A=FE_OFN211_n236 
XU276 NOR2X1 $PINS Y=B[27] B=n302 A=FE_OFN211_n236 
XU277 NOR2X1 $PINS Y=B[26] B=n303 A=FE_OFN211_n236 
XU278 NOR2X1 $PINS Y=B[25] B=n260 A=FE_OFN211_n236 
XU279 NAND2X1 $PINS Y=n260 B=n235 A=n304 
XU280 NOR2X1 $PINS Y=B[24] B=n263 A=FE_OFN211_n236 
XU281 NOR2X1 $PINS Y=B[23] B=n265 A=FE_OFN211_n236 
XU282 MXI2X1 $PINS Y=n265 S0=n233 B=n306 A=n243 
XU283 MXI2X1 $PINS Y=n270 S0=FE_OFN208_n233 B=n308 A=n244 
XU284 MXI2X1 $PINS Y=n275 S0=n233 B=n310 A=n245 